IEEE data/003_bus/bpa/003bpa.DAT
(POWERFLOW,CASEID=EMS,PROJECT=TEST)
/P_INPUT_LIST,FULL\
/P_OUTPUT_LIST,FULL\
/P_ANALYSIS_RPT,LEVEL=4\
/NETWORK_DATA\
.234567890*234567890*234567890*234567890*234567890*234567890*234567890*234567890
BQ    bus-1    100 1                      1998.22197-22191000                                                                                                                                                                                                                                              
B     bus-2    100 1                                                                                                                                                                                                                                                                                       
BS    bus-3    100 1                      -199822197-22190900                                                                                                                                                                                                                                              
-999
.234567890*234567890*234567890*234567890*234567890*234567890*234567890*234567890
.234567890*234567890*234567890*234567890*234567890*234567890*234567890*234567890
L     bus-2    100 bus-3    100             .04189                                                                                                                                                                                                                                                         
L     bus-2    100 bus-3    100A            .02252                                                                                                                                                                                                                                                         
T     bus-2    100 bus-1    100             .00675            100. 100.                                                                                                                                                                                                                                    
.234567890*234567890*234567890*234567890*234567890*234567890*234567890*234567890
(END)